[TITLE]


[JUNCTIONS]
;ID              	Elev        	Demand      	Pattern         
 20              	36.6        	31.51       	1               	;
 30              	36.6        	31.51       	2               	;
 40              	36.6        	12.52       	3               	;
 50              	36.6        	31.51       	4               	;
 60              	24.4        	50.9        	5               	;
 80              	24.4        	31.51       	7               	;
 140             	24.4        	12.52       	13              	;
 70              	36.6        	31.51       	6               	;
 90              	36.6        	63.83       	8               	;
 150             	24.4        	12.52       	14              	;
 100             	36.6        	31.51       	9               	;
 160             	36.6        	31.51       	15              	;
 170             	24.4        	12.52       	16              	;
 110             	36.6        	31.51       	10              	;
 120             	24.4        	31.51       	11              	;
 130             	24.4        	31.51       	12              	;

[RESERVOIRS]
;ID              	Head        	Pattern         
 500             	3.04        	                	;

[TANKS]
;ID              	Elevation   	InitLevel   	MinLevel    	MaxLevel    	Diameter    	MinVol      	VolCurve        	Overflow
 501             	35          	15.05       	3.05        	30          	25          	0           	                	;
 502             	35          	15.05       	3.05        	30          	25          	0           	                	;

[PIPES]
;ID              	Node1           	Node2           	Length      	Diameter    	Roughness   	MinorLoss   	Status
 P1036           	40              	50              	1830        	254         	120         	0           	Open  	;
 P1066           	50              	140             	3656        	203         	130         	0           	Open  	;
 P1064           	140             	170             	3656        	203         	130         	0           	Open  	;
 P1032           	40              	30              	1830        	254         	120         	0           	Open  	;
 P1004           	30              	20              	3657        	406         	120         	0           	Open  	;
 P1038           	50              	80              	1830        	254         	120         	0           	Open  	;
 P1040           	80              	140             	1830        	254         	130         	0           	Open  	;
 P1030           	30              	60              	1830        	254         	120         	0           	Open  	;
 P1014           	60              	70              	1830        	305         	70          	0           	Open  	;
 P1008           	70              	30              	2743        	305         	70          	0           	Open  	;
 P1002           	70              	20              	3657        	406         	120         	0           	Open  	;
 P1006           	20              	110             	3657        	406         	120         	0           	Open  	;
 P1078           	501             	60              	30.5        	305         	110         	0           	Open  	;
 P1010           	70              	100             	1830        	305         	120         	0           	Open  	;
 P1046           	100             	160             	1830        	305         	90          	0           	Open  	;
 P1052           	110             	120             	1830        	203         	90          	0           	Open  	;
 P1056           	120             	130             	1830        	203         	130         	0           	Open  	;
 P1080           	502             	160             	30.5        	305         	110         	0           	Open  	;
 P1060           	170             	130             	1830        	203         	130         	0           	Open  	;
 P1018           	60              	80              	1830        	305         	70          	0           	Open  	;
 P1020           	80              	90              	1830        	254         	70          	0           	Open  	;
 P1016           	90              	60              	1830        	254         	70          	0           	Open  	;
 P1022           	90              	150             	1830        	254         	70          	0           	Open  	;
 P1026           	100             	150             	1830        	305         	70          	0           	Open  	;
 P1042           	140             	150             	1830        	203         	130         	0           	Open  	;
 P1024           	90              	100             	1830        	254         	70          	0           	Open  	;
 P1028           	80              	150             	1830        	254         	90          	0           	Open  	;
 P1062           	140             	160             	1830        	203         	130         	0           	Open  	;
 P1044           	150             	160             	1830        	203         	90          	0           	Open  	;
 P1058           	160             	130             	1830        	254         	130         	0           	Open  	;
 P1048           	100             	110             	1830        	203         	90          	0           	Open  	;
 P1050           	110             	160             	1830        	254         	90          	0           	Open  	;
 P1034           	30              	50              	2743        	254         	120         	0           	Open  	;
 P1012           	70              	90              	1830        	254         	70          	0           	Open  	;

[PUMPS]
;ID              	Node1           	Node2           	Parameters
 16              	500             	20              	HEAD 1	;
 1               	500             	20              	HEAD 1	;

[VALVES]
;ID              	Node1           	Node2           	Diameter    	Type	Setting     	MinorLoss   

[TAGS]

[DEMANDS]
;Junction        	Demand      	Pattern         	Category

[STATUS]
;ID              	Status/Setting

[PATTERNS]
;ID              	Multipliers
;
 1               	1.0041      	1.0108      	0.9498      	0.81713     	0.85397     	0.91735     
 1               	1.0284      	0.79433     	0.94009     	0.91696     	0.82893     	0.775       
 1               	0.83456     	0.85782     	0.72406     	0.85991     	0.77315     	0.85087     
 1               	0.90363     	0.81482     	0.896       	1.0603      	0.8488      	1.2625      
 1               	1.4546      	1.2538      	1.1917      	1.3735      	1.1841      	1.6611      
 1               	1.5969      	1.5553      	1.3387      	1.568       	1.485       	1.5757      
 1               	1.5132      	1.4835      	1.4912      	1.6171      	1.3775      	1.7454      
 1               	1.6587      	1.7632      	1.6597      	1.6399      	1.2973      	1.3541      
 1               	1.3652      	1.4396      	1.5691      	1.2628      	1.4632      	1.345       
 1               	1.4518      	1.308       	1.1616      	1.0385      	1.2225      	1.2487      
 1               	1.2044      	1.17        	1.1704      	1.2429      	1.24        	1.362       
 1               	1.4011      	1.3858      	1.534       	1.4871      	1.7139      	1.5104      
 1               	1.741       	1.3517      	1.5083      	1.403       	1.5067      	1.5422      
 1               	1.1057      	1.2471      	1.2416      	1.5275      	1.6377      	1.407       
 1               	1.5974      	1.511       	1.2822      	1.429       	1.2192      	1.4655      
 1               	1.2278      	1.3682      	1.0625      	1.1414      	1.0142      	0.74518     
 1               	0.90389     	1.0242      	0.94195     	0.80472     	0.84692     	0.96026     
 1               	0.81379     	0.96202     	0.8228      	1.0594      	0.76359     	0.89141     
 1               	0.73453     	0.80956     	0.80525     	0.88505     	0.92966     	0.89233     
 1               	0.8488      	0.9772      	1.0048      	1.0456      	1.1084      	1.2014      
 1               	1.0642      	1.2414      	1.1595      	1.2481      	1.3557      	1.3671      
 1               	1.4527      	1.5407      	1.6347      	1.502       	1.6383      	1.6011      
 1               	1.6555      	1.7405      	1.5523      	1.7116      	1.7742      	1.6748      
 1               	1.9856      	1.5609      	1.5098      	1.3002      	1.6761      	1.6527      
 1               	1.4297      	1.5652      	1.4481      	1.3498      	1.3252      	1.3519      
 1               	1.3237      	1.6657      	1.1076      	1.0015      	1.0756      	1.0368      
 1               	1.1971      	1.2265      	1.1913      	1.4841      	1.3667      	1.504       
 1               	1.6567      	1.5786      	1.2709      	1.1381      	1.595       	1.206       
 1               	1.4974      	1.4747      	1.767       	1.4428      	1.3608      	1.5028      
 1               	1.4622      	1.4604      	1.374       	1.3         	1.4856      	1.2699      
 1               	1.3362      	1.6375      	1.3846      	1.3666      	1.4492      	1.2449      
 1               	1.3702      	1.1449      	1.2325      	1.1555      	1.0074      	0.86047     
 1               	0.93071     	0.97349     	0.93886     	0.90092     	1.0288      	0.94233     
 1               	1.0438      	0.8604      	1           	0.88143     	0.90309     	0.994       
 1               	0.86089     	0.86507     	1.0652      	0.96599     	0.84272     	0.95634     
 1               	0.88112     	1.0028      	1.1012      	0.89918     	1.1988      	1.3705      
 1               	1.2298      	1.405       	1.3066      	1.2067      	1.0781      	1.4134      
 1               	1.6349      	1.5553      	1.5975      	1.4969      	1.6681      	1.4217      
 1               	1.5502      	1.5868      	1.8041      	1.7245      	1.5345      	1.7187      
 1               	1.6338      	1.6081      	1.8357      	1.6523      	1.656       	1.716       
 1               	1.521       	1.5708      	1.5748      	1.5189      	1.423       	1.532       
 1               	1.3615      	1.344       	1.521       	1.2096      	1.2583      	1.3177      
 1               	1.3166      	1.4749      	1.3932      	1.5021      	1.2577      	1.5324      
 1               	1.2566      	1.4938      	1.6336      	1.5708      	1.6502      	1.8436      
 1               	1.6845      	1.564       	1.5942      	1.5702      	1.2907      	1.4587      
 1               	1.6607      	1.4969      	1.6051      	1.3808      	1.5024      	1.612       
 1               	1.3344      	1.5502      	1.4709      	1.3019      	1.3732      	1.0782      
 1               	1.0138      	1.0847      	1.0452      	0.99472     	0.88292     	1.0047      
 1               	0.84727     	0.98123     	1.0274      	0.91096     	0.91705     	0.90651     
 1               	0.77387     	0.87762     	0.96901     	1.0589      	0.8238      	0.73588     
 1               	0.88565     	0.91063     	0.8413      	0.75736     	1.0273      	0.66561     
 1               	0.84143     	0.7885      	0.87617     	1.072       	1.069       	1.0778      
 1               	1.2796      	1.2325      	1.3288      	1.2789      	1.4801      	1.5121      
 1               	1.8517      	1.6178      	1.6602      	1.5491      	1.3897      	1.5882      
 1               	1.5041      	1.5819      	1.7559      	1.5819      	1.5323      	1.6004      
 1               	1.6749      	1.7397      	1.4829      	1.6352      	1.5569      	1.7319      
 1               	1.4185      	1.4248      	1.2625      	1.1363      	1.3586      	1.2697      
 1               	1.3841      	1.193       	1.5016      	1.2515      	1.3487      	1.144       
 1               	1.2379      	1.341       	1.2929      	1.2572      	1.1201      	1.2523      
 1               	1.2142      	1.4229      	1.4058      	1.437       	1.2711      	1.6013      
 1               	1.5615      	1.4645      	1.6016      	1.3333      	1.5014      	1.5279      
 1               	1.4853      	1.352       	1.5194      	1.4127      	1.3182      	1.2977      
 1               	1.6539      	1.3303      	1.4281      	1.2254      	1.2973      	0.87348     
 1               	1.1135      	1.0224      	1.0112      	1.0698      	1.0014      	1.1315      
 1               	0.93839     	0.93438     	0.7929      	0.85676     	0.77713     	0.93312     
 1               	0.9737      	0.90559     	0.81179     	0.74555     	0.97412     	1.0458      
 1               	0.87057     	0.7808      	0.95183     	0.79484     	0.80401     	0.93646     
 1               	0.75423     	0.72161     	0.9628      	1.067       	1.0511      	1.2026      
 1               	1.2993      	1.2569      	1.1623      	1.4258      	1.3457      	1.3297      
 1               	1.2873      	1.5373      	1.4174      	1.5287      	1.4502      	1.3761      
 1               	1.6346      	1.6451      	1.8396      	1.7868      	1.8368      	1.5244      
 1               	1.5235      	1.4409      	1.6991      	2.0014      	1.6364      	1.3934      
 1               	1.5509      	1.2651      	1.2109      	1.3959      	1.1999      	1.3265      
 1               	1.4842      	1.3454      	1.3608      	1.0248      	1.2853      	1.403       
 1               	1.3098      	1.0478      	1.1848      	1.3281      	1.3563      	1.4463      
 1               	1.4534      	1.3459      	1.3609      	1.3863      	1.5768      	1.195       
 1               	1.4464      	1.4986      	1.3413      	1.5114      	1.4133      	1.3211      
 1               	1.44        	1.4014      	1.3933      	1.366       	1.4386      	1.1877      
 1               	1.4206      	1.357       	1.3041      	1.4662      	1.2233      	1.3433      
 1               	1.354       	1.1591      	1.1421      	1.1484      	1.0138      	0.98599     
 1               	0.86467     	1.0587      	0.84259     	0.73098     	1.0156      	0.91919     
 1               	0.9321      	0.834       	0.77939     	0.61353     	0.8981      	0.83817     
 1               	0.83842     	0.89659     	0.72521     	0.77882     	0.93507     	0.90644     
 1               	0.75897     	0.69551     	0.86618     	1.0419      	1.1328      	1.1498      
 1               	1.0349      	1.174       	1.0817      	1.1854      	1.2293      	1.2214      
 1               	1.414       	1.3064      	1.4192      	1.443       	1.502       	1.5378      
 1               	1.7949      	1.7464      	1.643       	1.4034      	1.3837      	1.3165      
 1               	2.1067      	1.8005      	1.6506      	1.4044      	1.3429      	1.5838      
 1               	1.6457      	1.1778      	1.3409      	1.2841      	1.036       	1.3861      
 1               	1.2401      	1.5321      	1.1896      	1.2636      	1.0617      	1.0775      
 1               	1.091       	1.28        	1.359       	1.3075      	1.3555      	1.3115      
 1               	1.4029      	1.5549      	1.4568      	1.3129      	1.3207      	1.4337      
 1               	1.4404      	1.3252      	1.4525      	1.616       	1.3798      	1.4199      
 1               	1.0988      	1.3209      	1.2433      	1.4058      	1.4964      	1.6689      
 1               	1.7357      	1.4101      	1.3811      	1.4804      	1.3771      	1.3641      
 1               	1.322       	0.9975      	1.1646      	1.0634      	0.93897     	0.86555     
 1               	1.1044      	0.86631     	0.81067     	0.90397     	1.0599      	0.9174      
 1               	0.90967     	0.77582     	1.0024      	0.88715     	0.88041     	0.77236     
 1               	0.91838     	0.88555     	0.73944     	0.83438     	0.79243     	0.85536     
 1               	0.83958     	0.86571     	0.81492     	0.97645     	1.1026      	1.3235      
 1               	1.0194      	1.3948      	1.3971      	1.3192      	1.2619      	1.2814      
 1               	1.5575      	1.3216      	1.3785      	1.6289      	1.6169      	1.7456      
 1               	1.6605      	1.563       	1.5327      	1.7566      	1.5249      	1.8131      
 1               	1.7841      	1.67        	1.5925      	1.5956      	2.0296      	1.4687      
 1               	1.1886      	1.6713      	1.4736      	1.1981      	1.6148      	1.3345      
 1               	1.3175      	1.1733      	1.0943      	0.9885      	1.1357      	1.0172      
 1               	1.3013      	1.1797      	1.4         	1.5828      	1.3059      	1.3277      
 1               	1.5321      	1.2163      	1.5199      	1.3521      	1.3718      	1.3459      
 1               	1.5364      	1.3236      	1.2613      	1.4974      	1.3409      	1.4859      
 1               	1.3448      	1.4546      	1.0625      	1.5139      	1.6671      	1.5817      
 1               	1.5879      	1.3776      	1.437       	1.3869      	1.3111      	1.1494      
 1               	1.1707      	1.138       	1.0405      	1.1506      	1.2605      	0.79832     
 1               	0.96721     	0.78687     	1.0199      	0.98496     	0.71769     	1.0661      
 1               	0.76743     	0.85407     	0.92961     	0.86727     	1.0028      	1.0619      
 1               	0.83676     	0.67289     	0.78579     	0.74192     	0.74754     	0.73227     
 1               	0.84658     	1.0421      	0.82302     	0.95669     	1.1155      	1.2325      
 1               	1.1795      	1.212       	1.2853      	1.2172      	1.3236      	1.3036      
 1               	1.2763      	1.4733      	1.4193      	1.4326      	1.5554      	1.717       
 1               	1.6024      	1.6192      	1.6202      	1.5952      	1.471       	1.7054      
 1               	1.84        	1.4989      	1.8522      	1.475       	1.4279      	1.3189      
 1               	1.2643      	1.2378      	1.4027      	1.4492      	1.3143      	1.3391      
 1               	1.4159      	0.93086     	1.1746      	1.2127      	1.2397      	0.9643      
 1               	1.0722      	1.2825      	1.1468      	1.4155      	1.1329      	1.115       
 1               	1.4421      	1.5         	1.6157      	1.1969      	1.2076      	1.1999      
 1               	1.4112      	1.3139      	1.5577      	1.1827      	1.1278      	1.4275      
 1               	1.5219      	1.2708      	1.2175      	1.39        	1.1474      	1.4         
 1               	1.5372      	1.4068      	1.1139      	1.2497      	1.2285      	1.4445      
 1               	1.2919      	1.1234      	1.2058      	0.92745     	0.94648     	1.0243      
 1               	1.0805      	0.97055     	0.93122     	0.79939     	0.90983     	0.80532     
 1               	0.89541     	0.84465     	0.91777     	0.80494     	0.85329     	0.88406     
 1               	0.73894     	0.83067     	0.9304      	0.80641     	0.77167     	0.84895     
 1               	0.80358     	0.88428     	0.86027     	0.96647     	1.028       	1.2286      
 1               	1.1566      	1.2595      	0.92717     	1.189       	1.278       	1.2115      
 1               	1.2036      	1.4468      	1.4718      	1.4777      	1.5454      	1.4033      
 1               	1.4412      	1.5457      	1.4437      	1.613       	1.9394      	1.4802      
 1               	1.6892      	1.3965      	1.7322      	1.3339      	1.4698      	1.3371      
 1               	1.4199      	1.3474      	1.3268      	1.5918      	1.1507      	1.2079      
 1               	1.5575      	1.0808      	1.2401      	1.0282      	1.2551      	1.1267      
 1               	1.2492      	1.1365      	1.1694      	1.5137      	0.95237     	1.0969      
 1               	1.373       	1.2319      	1.3259      	1.1823      	1.2471      	1.3284      
 1               	1.2928      	1.2579      	1.2972      	1.2332      	1.5238      	1.24        
 1               	1.5806      	1.3083      	1.1721      	1.3021      	1.4756      	1.5199      
 1               	1.4188      	1.3933      	1.4401      	1.1095      	1.1736      	0.98266     
 1               	1.112       	1.2169      	1.1241      	1.2518      	0.98072     	0.69246     
 1               	1.1388      	1.0583      	0.86692     	0.90024     	0.94659     	0.94561     
 1               	0.9393      	0.84235     	0.85113     	0.87959     	0.76629     	0.97033     
 1               	0.8425      	0.90644     	0.76086     	0.73808     	0.81824     	0.82069     
 1               	0.95933     	0.93137     	0.95322     	0.85904     	0.92048     	1.144       
 1               	1.1077      	1.266       	1.368       	1.216       	1.4081      	1.5621      
 1               	1.4767      	1.6427      	1.591       	1.5212      	1.6769      	1.6251      
 1               	1.5077      	1.6784      	1.6137      	1.56        	1.9146      	1.6485      
 1               	2.0945      	1.5675      	1.6735      	1.7742      	1.9006      	1.523       
 1               	1.2901      	1.5079      	1.1997      	1.2399      	1.3082      	1.4461      
 1               	1.4566      	1.2626      	1.3313      	1.1566      	1.258       	1.348       
 1               	1.2352      	1.176       	1.1246      	1.4664      	1.4495      	1.6486      
 1               	1.3745      	1.3894      	1.3274      	1.6744      	1.4113      	1.3678      
 1               	1.7615      	1.5439      	1.5051      	1.27        	1.4538      	1.5012      
 1               	1.2356      	1.3777      	1.3644      	1.5154      	1.2586      	1.581       
 1               	1.7067      	1.3619      	1.4033      	1.4154      	1.4478      	1.3125      
 1               	1.2554      	1.0969      	1.0625      	1.1213      	1.1687      	0.96761     
 1               	0.86503     	0.98816     	0.92094     	0.8675      	0.86725     	0.83854     
 1               	0.85824     	0.79276     	0.83127     	0.89071     	0.85473     	0.83922     
 1               	0.83718     	0.85934     	0.87858     	0.94207     	0.88549     	0.82579     
 1               	0.91702     	0.86491     	0.75053     	0.77591     	0.85268     	1.1054      
 1               	1.0869      	1.0507      	1.2229      	1.2177      	1.2249      	1.4686      
 1               	1.5577      	1.7747      	1.4961      	1.5126      	1.4674      	1.5782      
 1               	1.5802      	1.3488      	1.5817      	1.7574      	1.5486      	1.709       
 1               	1.826       	1.8067      	1.7238      	1.1971      	1.4225      	1.627       
 1               	1.4702      	1.4101      	1.4565      	1.4327      	1.3057      	1.1744      
 1               	1.2628      	1.2518      	1.3409      	1.2563      	1.2567      	1.1592      
 1               	1.1835      	1.2317      	1.2212      	1.1885      	1.3141      	1.5002      
 1               	1.3652      	1.5975      	1.511       	1.3948      	1.4137      	1.4098      
 1               	1.495       	1.551       	1.3768      	1.4911      	1.6538      	1.5751      
 1               	1.5161      	1.3073      	1.3591      	1.4887      	1.3989      	1.2057      
 1               	1.2408      	1.5637      	1.3107      	1.643       	1.0149      	1.316       
 1               	1.2193      	1.0758      	1.1427      	0.9821      	1.097       	0.93065     
 1               	0.84011     	0.73293     	0.92257     	1.0124      	0.92218     	0.94432     
 1               	0.96807     	0.75631     	1.0069      	0.81895     	0.86141     	0.84433     
 1               	0.88145     	0.70477     	0.98894     	0.89958     	1.0229      	0.99149     
 1               	0.88492     	0.82072     	0.77059     	1.0375      	1.0742      	1.2776      
 1               	1.0711      	1.2486      	1.253       	1.2286      	1.4389      	1.4515      
 1               	1.441       	1.7314      	1.5738      	1.5193      	1.6344      	1.6586      
 1               	1.6506      	1.7471      	1.5583      	1.5369      	1.7382      	1.9772      
 1               	1.645       	1.4974      	1.595       	1.5035      	1.4897      	1.5971      
 1               	1.4261      	1.3541      	1.3623      	1.141       	1.2007      	1.1148      
 1               	1.2458      	1.1642      	1.1681      	1.1954      	1.071       	1.1647      
 1               	1.2971      	1.1301      	1.357       	1.1875      	1.2671      	1.1942      
 1               	1.3615      	1.2234      	1.3776      	1.3772      	1.2929      	1.1751      
 1               	1.5754      	1.7678      	1.7708      	1.3848      	1.4305      	1.4033      
 1               	1.4416      	1.3203      	1.1852      	1.4793      	1.2667      	1.1908      
 1               	1.8484      	1.4149      	1.5072      	1.5552      	1.1084      	1.3398      
 1               	1.3079      	1.1987      	1.1396      	1.0322      	1.1065      	0.8641      
 1               	0.93465     	1.0487      	1.1215      	0.88253     	0.86917     	0.98795     
 1               	1.0136      	0.97406     	0.91476     	0.85124     	0.92191     	0.87848     
 1               	0.99855     	0.75968     	0.87954     	0.97328     	0.81819     	0.82285     
 1               	0.8099      	0.88989     	0.92381     	1.061       	0.96849     	1.1786      
 1               	1.124       	1.1259      	1.152       	1.3078      	1.8315      	1.916       
 1               	1.6625      	1.5892      	1.3076      	1.4618      	1.5076      	1.7507      
 1               	1.7189      	1.7074      	1.619       	1.5315      	1.6965      	1.8728      
 1               	1.7884      	1.7144      	1.7599      	1.69        	1.3049      	1.5437      
 1               	1.398       	1.1591      	1.2493      	1.2864      	1.4372      	1.2819      
 1               	1.3624      	1.2013      	0.99632     	1.2574      	1.1131      	1.3177      
 1               	1.4878      	1.2169      	1.3812      	1.5624      	1.1442      	1.4126      
 1               	1.4623      	1.4996      	1.5771      	1.6045      	1.5829      	1.4499      
 1               	1.5642      	1.1534      	1.2931      	1.6488      	1.3565      	1.5363      
 1               	1.664       	1.3387      	1.3401      	1.4266      	1.5233      	1.4558      
 1               	1.362       	1.2338      	1.4099      	1.3733      	1.275       	1.2662      
 1               	1.1208      	1.2675      	0.88728     	1.1173      	1.1126      	0.8734      
 1               	1.0546      	1.0511      	0.94066     	0.95749     	0.99549     	0.89849     
 1               	1.0359      	1.0291      	0.96016     	0.95073     	0.80035     	0.97062     
 1               	0.80524     	1.0704      	0.95353     	0.92425     	0.86366     	0.7172      
 1               	0.82144     	0.99101     	1.2221      	1.1742      	1.1439      	1.1547      
 1               	1.2647      	1.3384      	1.2799      	1.6715      	1.2377      	1.4364      
 1               	1.5659      	1.238       	1.6544      	1.6342      	1.6921      	1.8736      
 1               	1.8913      	1.9057      	1.6685      	1.7546      	1.8335      	1.5353      
 1               	1.6057      	1.6836      	1.7382      	1.9664      	1.7552      	1.5381      
 1               	1.4292      	1.7528      	1.9161      	1.4112      	1.3202      	1.1767      
 1               	1.5218      	1.4184      	1.4815      	1.1828      	1.3156      	1.1512      
 1               	1.4929      	1.2473      	1.2775      	1.438       	1.5304      	1.5437      
 1               	1.339       	1.3943      	1.3814      	1.6493      	1.5996      	1.3075      
 1               	1.2739      	1.5487      	1.6358      	1.5633      	1.2828      	1.3125      
 1               	1.6411      	1.5123      	1.4884      	1.7735      	1.4024      	1.5733      
 1               	1.6426      	1.6546      	1.3985      	1.5191      	1.7937      	1.1526      
 1               	1.3717      	1.226       	1.0863      	1.0546      	1.1434      	1.2277      
 1               	0.94042     	1.0368      	0.91131     	1.1059      	0.97095     	0.94164     
 1               	0.97788     	0.89283     	0.99515     	0.89729     	0.77457     	0.91267     
 1               	1.0207      	0.78298     	0.85126     	0.95431     	0.69961     	0.93809     
 1               	0.96622     	0.94046     	0.87523     	1.0522      	1.0786      	1.2858      
 1               	1.2832      	1.1347      	1.4697      	1.3469      	1.2473      	1.3744      
 1               	1.629       	1.5108      	1.6421      	1.5725      	2.0187      	1.3931      
 1               	1.5807      	1.6847      	1.701       	1.9449      	1.743       	1.6718      
 1               	1.737       	1.8211      	1.5466      	1.6786      	1.3206      	1.5377      
 1               	1.3305      	1.368       	1.4902      	1.1863      	1.2034      	1.1197      
 1               	1.0378      	1.3075      	1.4265      	1.2302      	1.2084      	1.0621      
 1               	1.4772      	1.2396      	1.4019      	1.4868      	1.3054      	1.5799      
 1               	1.5744      	1.4175      	1.6784      	1.7813      	1.4813      	1.467       
 1               	1.5773      	1.5503      	1.5917      	1.4428      	1.5655      	1.6532      
 1               	1.4803      	1.5006      	1.304       	1.3324      	1.2531      	1.309       
 1               	1.495       	1.2349      	1.8035      	1.517       	1.0749      	1.1569      
 1               	1.2525      	1.0015      	1.0881      	1.2287      	1.0318      	0.95358     
 1               	0.90477     	0.91434     	0.8217      	0.94202     	0.86536     	1.0134      
 1               	1.0185      	0.97403     	0.87881     	0.85455     	0.7536      	0.88712     
 1               	0.95239     	0.8456      	0.84383     	0.90617     	0.9259      	0.74588     
 1               	0.90214     	0.92409     	0.91927     	1.1289      	1.0135      	1.0618      
 1               	1.2171      	1.2106      	1.2179      	1.4386      	1.1335      	1.2628      
 1               	1.023       	1.5347      	1.3373      	1.4983      	1.7519      	1.6537      